<?xml version="1.0" encoding="UTF-8"?>

<!-- generated on 2026-05-01T14:27:33.035202+00:00 by Eclipse SUMO netconvert 1.26.0
<netconvertConfiguration xmlns:xsi="http://www.w3.org/2001/XMLSchema-instance" xsi:noNamespaceSchemaLocation="http://sumo.dlr.de/xsd/netconvertConfiguration.xsd">

    <input>
        <node-files value="/var/folders/3r/lvt01nld4hs37_zq2mpf2vy80000gn/T/tmp.AzIUleeDX6/nodes.nod.xml"/>
        <edge-files value="/var/folders/3r/lvt01nld4hs37_zq2mpf2vy80000gn/T/tmp.AzIUleeDX6/edges.edg.xml"/>
    </input>

    <output>
        <output-file value="/var/folders/3r/lvt01nld4hs37_zq2mpf2vy80000gn/T/tmp.AzIUleeDX6/tiny.net.xml"/>
    </output>

</netconvertConfiguration>
-->

<net version="1.20" junctionCornerDetail="5" limitTurnSpeed="5.50" xmlns:xsi="http://www.w3.org/2001/XMLSchema-instance" xsi:noNamespaceSchemaLocation="http://sumo.dlr.de/xsd/net_file.xsd">

    <location netOffset="0.00,0.00" convBoundary="0.00,0.00,200.00,0.00" origBoundary="0.00,0.00,200.00,0.00" projParameter="!"/>

    <edge id=":j1_0" function="internal">
        <lane id=":j1_0_0" index="0" speed="13.89" length="0.10" shape="100.00,-1.60 100.00,-1.60"/>
    </edge>

    <edge id="e1" from="j0" to="j1" priority="1">
        <lane id="e1_0" index="0" speed="13.89" length="100.00" shape="0.00,-1.60 100.00,-1.60"/>
    </edge>
    <edge id="e2" from="j1" to="j2" priority="1">
        <lane id="e2_0" index="0" speed="13.89" length="100.00" shape="100.00,-1.60 200.00,-1.60"/>
    </edge>

    <junction id="j0" type="dead_end" x="0.00" y="0.00" incLanes="" intLanes="" shape="-0.00,0.00 -0.00,-3.20"/>
    <junction id="j1" type="priority" x="100.00" y="0.00" incLanes="e1_0" intLanes=":j1_0_0" shape="100.00,0.00 100.00,-3.20 100.00,0.00">
        <request index="0" response="0" foes="0" cont="0"/>
    </junction>
    <junction id="j2" type="dead_end" x="200.00" y="0.00" incLanes="e2_0" intLanes="" shape="200.00,-3.20 200.00,0.00"/>

    <connection from="e1" to="e2" fromLane="0" toLane="0" via=":j1_0_0" dir="s" state="M"/>

    <connection from=":j1_0" to="e2" fromLane="0" toLane="0" dir="s" state="M"/>

</net>
