<routes>
    <vType id="car" accel="2.6" decel="4.5" length="5" maxSpeed="13.89"/>
    <route id="r" edges="e1 e2"/>
    <vehicle id="v0" type="car" route="r" depart="0"/>
    <vehicle id="v1" type="car" route="r" depart="1"/>
</routes>
