<?xml version="1.0" encoding="UTF-8"?>
<configuration>
    <input>
        <net-file value="flowdemo.net.xml"/>
        <route-files value="flowdemo.rou.xml"/>
    </input>
    <time>
        <begin value="0"/>
        <end value="300"/>
        <step-length value="1"/>
    </time>
    <processing>
        <time-to-teleport value="-1"/>
    </processing>
    <report>
        <no-step-log value="true"/>
    </report>
</configuration>
